/*--------------------------------*- C++ -*----------------------------------*\
| =========                 |                                                 |
| \\      /  F ield         | OpenFOAM: The Open Source CFD Toolbox           |
|  \\    /   O peration     | Version:  2.3.0                                 |
|   \\  /    A nd           | Web:      www.OpenFOAM.org                      |
|    \\/     M anipulation  |                                                 |
\*---------------------------------------------------------------------------*/
FoamFile
{
    version     2.0;
    format      ascii;
    class       dictionary;
    object      blockMeshDict;
}
// * * * * * * * * * * * * * * * * * * * * * * * * * * * * * * * * * * * * * //

convertToMeters 1;

vertices
(
    (0 0 0) //0
    (40 0 0) //1
    (40 23 0) //2
    (0 23 0) //3
    (0 0 0.1) //4
    (40 0 0.1)  //5
    (40 23 0.1)  //6
    (0 23 0.1)  //7 
);

blocks
(
    hex (0 1 2 3 4 5 6 7) (2 50000 1) simpleGrading (1 3000 1)

);

edges
(
);

boundary
(
    upface
    {
        type patch;
        faces
        (
            (3 2 6 7)
        );
    }

    downface
    {
	type patch;
	faces
	(
	    (0 1 5 4)
	);
    }

    fixedWalls
    {
        type wall;
        faces
        (
	    (0 3 7 4)
            (1 2 6 5)
        );
    }
    frontAndBack
    {
        type empty;
        faces
        (
            (0 1 2 3)
	    (4 5 6 7)

        );
    }
);

mergePatchPairs
(
);

// ************************************************************************* //
