/*--------------------------------*- C++ -*----------------------------------*\
| =========                 |                                                 |
| \\      /  F ield         | OpenFOAM: The Open Source CFD Toolbox           |
|  \\    /   O peration     | Version:  2.3.0                                 |
|   \\  /    A nd           | Web:      www.OpenFOAM.org                      |
|    \\/     M anipulation  |                                                 |
\*---------------------------------------------------------------------------*/
FoamFile
{
    version     2.0;
    format      ascii;
    class       dictionary;
    location    "constant";
    object      transportProperties;
}
// * * * * * * * * * * * * * * * * * * * * * * * * * * * * * * * * * * * * * //

//D_v                 D_v     [0 2 -1 0 0 0 0] 8.0128e-4; 
D_o2                  D_o2    [0 2 -1 0 0 0 0] 12;
D_ads                 D_ads   [0 2 -1 0 0 0 0] 8.25e-1;
D_vsuf                D_vsuf  [0 2 -1 0 0 0 0] 2.6851e-15;
D_o2suf               D_o2suf [0 2 -1 0 0 0 0] 2.0639e-7;
Sigma                 Sigma   [0 2 -1 0 0 0 0] 37177e6;
tao                   tao     [0 0  0 0 0 0 0] 1e-5;

// ************************************************************************* //
